data_image0
_chemical_formula_structural       O384Si2Al4Si2Al3Si4AlSi3Al4Si3Al4Si2Al3Si4AlSi3Al4SiAl3Si4Al3Si4Al2Si3Al4SiAl2Si4Al2Si3Al4SiAl3Si4AlSi2Al4Si2Al3Si4AlSi3Al4SiAl2Si4Al2Si3Al4SiAl3Si4AlSi2Al4Si2Al3Si4AlSi3Al4SiAl2Si4Al2Si3Al4SiAl3Si4AlNa96
_chemical_formula_sum              "O384 Si96 Al96 Na96"
_cell_length_a       23.9265
_cell_length_b       23.9265
_cell_length_c       23.9265
_cell_angle_alpha    90
_cell_angle_beta     90
_cell_angle_gamma    90

_space_group_name_H-M_alt    "P 1"
_space_group_IT_number       1

loop_
  _space_group_symop_operation_xyz
  'x, y, z'

loop_
  _atom_site_type_symbol
  _atom_site_label
  _atom_site_symmetry_multiplicity
  _atom_site_fract_x
  _atom_site_fract_y
  _atom_site_fract_z
  _atom_site_occupancy
  O   O1        1.0  0.64877  0.50000  0.85123  1.0000
  O   O2        1.0  0.85123  0.50000  0.64877  1.0000
  O   O3        1.0  0.85123  0.64877  0.50000  1.0000
  O   O4        1.0  0.85123  0.50000  0.85123  1.0000
  O   O5        1.0  0.50000  0.85123  0.64877  1.0000
  O   O6        1.0  0.64877  0.85123  0.50000  1.0000
  O   O7        1.0  0.50000  0.85123  0.85123  1.0000
  O   O8        1.0  0.85123  0.85123  0.50000  1.0000
  O   O9        1.0  0.05554  0.44446  0.16887  1.0000
  O   O10       1.0  0.05554  0.33113  0.05554  1.0000
  O   O11       1.0  0.16887  0.44446  0.05554  1.0000
  O   O12       1.0  0.05554  0.44446  0.33113  1.0000
  O   O13       1.0  0.05554  0.33113  0.44446  1.0000
  O   O14       1.0  0.16887  0.44446  0.44446  1.0000
  O   O15       1.0  0.44446  0.44446  0.33113  1.0000
  O   O16       1.0  0.33113  0.44446  0.44446  1.0000
  O   O17       1.0  0.16887  0.05554  0.44446  1.0000
  O   O18       1.0  0.05554  0.16887  0.44446  1.0000
  O   O19       1.0  0.44446  0.05554  0.16887  1.0000
  O   O20       1.0  0.33113  0.05554  0.05554  1.0000
  O   O21       1.0  0.44446  0.16887  0.05554  1.0000
  O   O22       1.0  0.44446  0.05554  0.33113  1.0000
  O   O23       1.0  0.33113  0.05554  0.44446  1.0000
  O   O24       1.0  0.44446  0.16887  0.44446  1.0000
  O   O25       1.0  0.00000  0.25000  0.39272  1.0000
  O   O26       1.0  0.25000  0.39272  0.00000  1.0000
  O   O27       1.0  0.00000  0.39272  0.25000  1.0000
  O   O28       1.0  0.39272  0.00000  0.25000  1.0000
  O   O29       1.0  0.05554  0.05554  0.16887  1.0000
  O   O30       1.0  0.16887  0.05554  0.05554  1.0000
  O   O31       1.0  0.05554  0.16887  0.05554  1.0000
  O   O32       1.0  0.05554  0.05554  0.33113  1.0000
  O   O33       1.0  0.66887  0.55554  0.94446  1.0000
  O   O34       1.0  0.55554  0.66887  0.94446  1.0000
  O   O35       1.0  0.94446  0.55554  0.66887  1.0000
  O   O36       1.0  0.83113  0.55554  0.55554  1.0000
  O   O37       1.0  0.94446  0.66887  0.55554  1.0000
  O   O38       1.0  0.94446  0.55554  0.83113  1.0000
  O   O39       1.0  0.83113  0.55554  0.94446  1.0000
  O   O40       1.0  0.94446  0.66887  0.94446  1.0000
  O   O41       1.0  0.50000  0.75000  0.89272  1.0000
  O   O42       1.0  0.75000  0.89272  0.50000  1.0000
  O   O43       1.0  0.50000  0.89272  0.75000  1.0000
  O   O44       1.0  0.89272  0.50000  0.75000  1.0000
  O   O45       1.0  0.55554  0.55554  0.66887  1.0000
  O   O46       1.0  0.66887  0.55554  0.55554  1.0000
  O   O47       1.0  0.55554  0.66887  0.55554  1.0000
  O   O48       1.0  0.55554  0.55554  0.83113  1.0000
  O   O49       1.0  0.14877  0.00000  0.35123  1.0000
  O   O50       1.0  0.35123  0.00000  0.14877  1.0000
  O   O51       1.0  0.35123  0.14877  0.00000  1.0000
  O   O52       1.0  0.35123  0.00000  0.35123  1.0000
  O   O53       1.0  0.00000  0.35123  0.14877  1.0000
  O   O54       1.0  0.14877  0.35123  0.00000  1.0000
  O   O55       1.0  0.00000  0.35123  0.35123  1.0000
  O   O56       1.0  0.35123  0.35123  0.00000  1.0000
  O   O57       1.0  0.44446  0.33113  0.44446  1.0000
  O   O58       1.0  0.44446  0.44446  0.16887  1.0000
  O   O59       1.0  0.33113  0.44446  0.05554  1.0000
  O   O60       1.0  0.44446  0.33113  0.05554  1.0000
  O   O61       1.0  0.00000  0.14877  0.14877  1.0000
  O   O62       1.0  0.14877  0.00000  0.14877  1.0000
  O   O63       1.0  0.14877  0.14877  0.00000  1.0000
  O   O64       1.0  0.00000  0.14877  0.35123  1.0000
  O   O65       1.0  0.14877  0.00000  0.85123  1.0000
  O   O66       1.0  0.35123  0.00000  0.64877  1.0000
  O   O67       1.0  0.35123  0.14877  0.50000  1.0000
  O   O68       1.0  0.35123  0.00000  0.85123  1.0000
  O   O69       1.0  0.00000  0.35123  0.64877  1.0000
  O   O70       1.0  0.14877  0.35123  0.50000  1.0000
  O   O71       1.0  0.00000  0.35123  0.85123  1.0000
  O   O72       1.0  0.35123  0.35123  0.50000  1.0000
  O   O73       1.0  0.44446  0.33113  0.94446  1.0000
  O   O74       1.0  0.44446  0.44446  0.66887  1.0000
  O   O75       1.0  0.33113  0.44446  0.55554  1.0000
  O   O76       1.0  0.44446  0.33113  0.55554  1.0000
  O   O77       1.0  0.00000  0.14877  0.64877  1.0000
  O   O78       1.0  0.14877  0.00000  0.64877  1.0000
  O   O79       1.0  0.14877  0.14877  0.50000  1.0000
  O   O80       1.0  0.00000  0.14877  0.85123  1.0000
  O   O81       1.0  0.05554  0.44446  0.66887  1.0000
  O   O82       1.0  0.05554  0.33113  0.55554  1.0000
  O   O83       1.0  0.16887  0.44446  0.55554  1.0000
  O   O84       1.0  0.05554  0.44446  0.83113  1.0000
  O   O85       1.0  0.05554  0.33113  0.94446  1.0000
  O   O86       1.0  0.16887  0.44446  0.94446  1.0000
  O   O87       1.0  0.44446  0.44446  0.83113  1.0000
  O   O88       1.0  0.33113  0.44446  0.94446  1.0000
  O   O89       1.0  0.16887  0.05554  0.94446  1.0000
  O   O90       1.0  0.05554  0.16887  0.94446  1.0000
  O   O91       1.0  0.44446  0.05554  0.66887  1.0000
  O   O92       1.0  0.33113  0.05554  0.55554  1.0000
  O   O93       1.0  0.44446  0.16887  0.55554  1.0000
  O   O94       1.0  0.44446  0.05554  0.83113  1.0000
  O   O95       1.0  0.33113  0.05554  0.94446  1.0000
  O   O96       1.0  0.44446  0.16887  0.94446  1.0000
  O   O97       1.0  0.66887  0.55554  0.44446  1.0000
  O   O98       1.0  0.55554  0.66887  0.44446  1.0000
  O   O99       1.0  0.94446  0.55554  0.16887  1.0000
  O   O100      1.0  0.83113  0.55554  0.05554  1.0000
  O   O101      1.0  0.94446  0.66887  0.05554  1.0000
  O   O102      1.0  0.94446  0.55554  0.33113  1.0000
  O   O103      1.0  0.83113  0.55554  0.44446  1.0000
  O   O104      1.0  0.94446  0.66887  0.44446  1.0000
  O   O105      1.0  0.50000  0.60728  0.75000  1.0000
  O   O106      1.0  0.75000  0.50000  0.60728  1.0000
  O   O107      1.0  0.60728  0.75000  0.50000  1.0000
  O   O108      1.0  0.75000  0.50000  0.89272  1.0000
  O   O109      1.0  0.89272  0.75000  0.50000  1.0000
  O   O110      1.0  0.60728  0.50000  0.75000  1.0000
  O   O111      1.0  0.50000  0.75000  0.60728  1.0000
  O   O112      1.0  0.75000  0.60728  0.50000  1.0000
  O   O113      1.0  0.00000  0.75000  0.39272  1.0000
  O   O114      1.0  0.25000  0.89272  0.00000  1.0000
  O   O115      1.0  0.00000  0.89272  0.25000  1.0000
  O   O116      1.0  0.39272  0.50000  0.25000  1.0000
  O   O117      1.0  0.05554  0.55554  0.16887  1.0000
  O   O118      1.0  0.16887  0.55554  0.05554  1.0000
  O   O119      1.0  0.05554  0.66887  0.05554  1.0000
  O   O120      1.0  0.05554  0.55554  0.33113  1.0000
  O   O121      1.0  0.00000  0.60728  0.25000  1.0000
  O   O122      1.0  0.25000  0.50000  0.10728  1.0000
  O   O123      1.0  0.10728  0.75000  0.00000  1.0000
  O   O124      1.0  0.25000  0.50000  0.39272  1.0000
  O   O125      1.0  0.39272  0.75000  0.00000  1.0000
  O   O126      1.0  0.10728  0.50000  0.25000  1.0000
  O   O127      1.0  0.00000  0.75000  0.10728  1.0000
  O   O128      1.0  0.25000  0.60728  0.00000  1.0000
  O   O129      1.0  0.16887  0.55554  0.44446  1.0000
  O   O130      1.0  0.05554  0.66887  0.44446  1.0000
  O   O131      1.0  0.44446  0.55554  0.16887  1.0000
  O   O132      1.0  0.33113  0.55554  0.05554  1.0000
  O   O133      1.0  0.44446  0.66887  0.05554  1.0000
  O   O134      1.0  0.44446  0.55554  0.33113  1.0000
  O   O135      1.0  0.33113  0.55554  0.44446  1.0000
  O   O136      1.0  0.44446  0.66887  0.44446  1.0000
  O   O137      1.0  0.64877  0.50000  0.35123  1.0000
  O   O138      1.0  0.85123  0.50000  0.14877  1.0000
  O   O139      1.0  0.85123  0.64877  0.00000  1.0000
  O   O140      1.0  0.85123  0.50000  0.35123  1.0000
  O   O141      1.0  0.50000  0.85123  0.14877  1.0000
  O   O142      1.0  0.64877  0.85123  0.00000  1.0000
  O   O143      1.0  0.50000  0.85123  0.35123  1.0000
  O   O144      1.0  0.85123  0.85123  0.00000  1.0000
  O   O145      1.0  0.94446  0.83113  0.44446  1.0000
  O   O146      1.0  0.94446  0.94446  0.16887  1.0000
  O   O147      1.0  0.83113  0.94446  0.05554  1.0000
  O   O148      1.0  0.94446  0.83113  0.05554  1.0000
  O   O149      1.0  0.50000  0.64877  0.14877  1.0000
  O   O150      1.0  0.64877  0.50000  0.14877  1.0000
  O   O151      1.0  0.64877  0.64877  0.00000  1.0000
  O   O152      1.0  0.50000  0.64877  0.35123  1.0000
  O   O153      1.0  0.55554  0.94446  0.16887  1.0000
  O   O154      1.0  0.55554  0.83113  0.05554  1.0000
  O   O155      1.0  0.66887  0.94446  0.05554  1.0000
  O   O156      1.0  0.55554  0.94446  0.33113  1.0000
  O   O157      1.0  0.55554  0.83113  0.44446  1.0000
  O   O158      1.0  0.66887  0.94446  0.44446  1.0000
  O   O159      1.0  0.94446  0.94446  0.33113  1.0000
  O   O160      1.0  0.83113  0.94446  0.44446  1.0000
  O   O161      1.0  0.00000  0.60728  0.75000  1.0000
  O   O162      1.0  0.25000  0.50000  0.60728  1.0000
  O   O163      1.0  0.10728  0.75000  0.50000  1.0000
  O   O164      1.0  0.25000  0.50000  0.89272  1.0000
  O   O165      1.0  0.39272  0.75000  0.50000  1.0000
  O   O166      1.0  0.10728  0.50000  0.75000  1.0000
  O   O167      1.0  0.00000  0.75000  0.60728  1.0000
  O   O168      1.0  0.25000  0.60728  0.50000  1.0000
  O   O169      1.0  0.14877  0.50000  0.35123  1.0000
  O   O170      1.0  0.35123  0.50000  0.14877  1.0000
  O   O171      1.0  0.35123  0.64877  0.00000  1.0000
  O   O172      1.0  0.35123  0.50000  0.35123  1.0000
  O   O173      1.0  0.00000  0.85123  0.14877  1.0000
  O   O174      1.0  0.14877  0.85123  0.00000  1.0000
  O   O175      1.0  0.00000  0.85123  0.35123  1.0000
  O   O176      1.0  0.35123  0.85123  0.00000  1.0000
  O   O177      1.0  0.44446  0.83113  0.44446  1.0000
  O   O178      1.0  0.44446  0.94446  0.16887  1.0000
  O   O179      1.0  0.33113  0.94446  0.05554  1.0000
  O   O180      1.0  0.44446  0.83113  0.05554  1.0000
  O   O181      1.0  0.00000  0.64877  0.14877  1.0000
  O   O182      1.0  0.14877  0.50000  0.14877  1.0000
  O   O183      1.0  0.14877  0.64877  0.00000  1.0000
  O   O184      1.0  0.00000  0.64877  0.35123  1.0000
  O   O185      1.0  0.05554  0.94446  0.16887  1.0000
  O   O186      1.0  0.05554  0.83113  0.05554  1.0000
  O   O187      1.0  0.16887  0.94446  0.05554  1.0000
  O   O188      1.0  0.05554  0.94446  0.33113  1.0000
  O   O189      1.0  0.05554  0.83113  0.44446  1.0000
  O   O190      1.0  0.16887  0.94446  0.44446  1.0000
  O   O191      1.0  0.44446  0.94446  0.33113  1.0000
  O   O192      1.0  0.33113  0.94446  0.44446  1.0000
  O   O193      1.0  0.44446  0.83113  0.94446  1.0000
  O   O194      1.0  0.44446  0.94446  0.66887  1.0000
  O   O195      1.0  0.33113  0.94446  0.55554  1.0000
  O   O196      1.0  0.44446  0.83113  0.55554  1.0000
  O   O197      1.0  0.00000  0.64877  0.64877  1.0000
  O   O198      1.0  0.14877  0.50000  0.64877  1.0000
  O   O199      1.0  0.14877  0.64877  0.50000  1.0000
  O   O200      1.0  0.00000  0.64877  0.85123  1.0000
  O   O201      1.0  0.05554  0.94446  0.66887  1.0000
  O   O202      1.0  0.05554  0.83113  0.55554  1.0000
  O   O203      1.0  0.16887  0.94446  0.55554  1.0000
  O   O204      1.0  0.05554  0.94446  0.83113  1.0000
  O   O205      1.0  0.05554  0.83113  0.94446  1.0000
  O   O206      1.0  0.16887  0.94446  0.94446  1.0000
  O   O207      1.0  0.44446  0.94446  0.83113  1.0000
  O   O208      1.0  0.33113  0.94446  0.94446  1.0000
  O   O209      1.0  0.16887  0.55554  0.94446  1.0000
  O   O210      1.0  0.05554  0.66887  0.94446  1.0000
  O   O211      1.0  0.44446  0.55554  0.66887  1.0000
  O   O212      1.0  0.33113  0.55554  0.55554  1.0000
  O   O213      1.0  0.44446  0.66887  0.55554  1.0000
  O   O214      1.0  0.44446  0.55554  0.83113  1.0000
  O   O215      1.0  0.33113  0.55554  0.94446  1.0000
  O   O216      1.0  0.44446  0.66887  0.94446  1.0000
  O   O217      1.0  0.00000  0.75000  0.89272  1.0000
  O   O218      1.0  0.25000  0.89272  0.50000  1.0000
  O   O219      1.0  0.00000  0.89272  0.75000  1.0000
  O   O220      1.0  0.39272  0.50000  0.75000  1.0000
  O   O221      1.0  0.05554  0.55554  0.66887  1.0000
  O   O222      1.0  0.16887  0.55554  0.55554  1.0000
  O   O223      1.0  0.05554  0.66887  0.55554  1.0000
  O   O224      1.0  0.05554  0.55554  0.83113  1.0000
  O   O225      1.0  0.55554  0.44446  0.66887  1.0000
  O   O226      1.0  0.55554  0.33113  0.55554  1.0000
  O   O227      1.0  0.66887  0.44446  0.55554  1.0000
  O   O228      1.0  0.55554  0.44446  0.83113  1.0000
  O   O229      1.0  0.55554  0.33113  0.94446  1.0000
  O   O230      1.0  0.66887  0.44446  0.94446  1.0000
  O   O231      1.0  0.94446  0.44446  0.83113  1.0000
  O   O232      1.0  0.83113  0.44446  0.94446  1.0000
  O   O233      1.0  0.50000  0.75000  0.39272  1.0000
  O   O234      1.0  0.75000  0.89272  0.00000  1.0000
  O   O235      1.0  0.50000  0.89272  0.25000  1.0000
  O   O236      1.0  0.89272  0.50000  0.25000  1.0000
  O   O237      1.0  0.55554  0.55554  0.16887  1.0000
  O   O238      1.0  0.66887  0.55554  0.05554  1.0000
  O   O239      1.0  0.55554  0.66887  0.05554  1.0000
  O   O240      1.0  0.55554  0.55554  0.33113  1.0000
  O   O241      1.0  0.50000  0.60728  0.25000  1.0000
  O   O242      1.0  0.75000  0.50000  0.10728  1.0000
  O   O243      1.0  0.60728  0.75000  0.00000  1.0000
  O   O244      1.0  0.75000  0.50000  0.39272  1.0000
  O   O245      1.0  0.89272  0.75000  0.00000  1.0000
  O   O246      1.0  0.60728  0.50000  0.25000  1.0000
  O   O247      1.0  0.50000  0.75000  0.10728  1.0000
  O   O248      1.0  0.75000  0.60728  0.00000  1.0000
  O   O249      1.0  0.14877  0.50000  0.85123  1.0000
  O   O250      1.0  0.35123  0.50000  0.64877  1.0000
  O   O251      1.0  0.35123  0.64877  0.50000  1.0000
  O   O252      1.0  0.35123  0.50000  0.85123  1.0000
  O   O253      1.0  0.00000  0.85123  0.64877  1.0000
  O   O254      1.0  0.14877  0.85123  0.50000  1.0000
  O   O255      1.0  0.00000  0.85123  0.85123  1.0000
  O   O256      1.0  0.35123  0.85123  0.50000  1.0000
  O   O257      1.0  0.50000  0.25000  0.39272  1.0000
  O   O258      1.0  0.75000  0.39272  0.00000  1.0000
  O   O259      1.0  0.50000  0.39272  0.25000  1.0000
  O   O260      1.0  0.89272  0.00000  0.25000  1.0000
  O   O261      1.0  0.55554  0.05554  0.16887  1.0000
  O   O262      1.0  0.66887  0.05554  0.05554  1.0000
  O   O263      1.0  0.55554  0.16887  0.05554  1.0000
  O   O264      1.0  0.55554  0.05554  0.33113  1.0000
  O   O265      1.0  0.50000  0.10728  0.25000  1.0000
  O   O266      1.0  0.75000  0.00000  0.10728  1.0000
  O   O267      1.0  0.60728  0.25000  0.00000  1.0000
  O   O268      1.0  0.75000  0.00000  0.39272  1.0000
  O   O269      1.0  0.89272  0.25000  0.00000  1.0000
  O   O270      1.0  0.60728  0.00000  0.25000  1.0000
  O   O271      1.0  0.50000  0.25000  0.10728  1.0000
  O   O272      1.0  0.75000  0.10728  0.00000  1.0000
  O   O273      1.0  0.64877  0.00000  0.85123  1.0000
  O   O274      1.0  0.85123  0.00000  0.64877  1.0000
  O   O275      1.0  0.85123  0.14877  0.50000  1.0000
  O   O276      1.0  0.85123  0.00000  0.85123  1.0000
  O   O277      1.0  0.50000  0.35123  0.64877  1.0000
  O   O278      1.0  0.64877  0.35123  0.50000  1.0000
  O   O279      1.0  0.50000  0.35123  0.85123  1.0000
  O   O280      1.0  0.85123  0.35123  0.50000  1.0000
  O   O281      1.0  0.94446  0.33113  0.94446  1.0000
  O   O282      1.0  0.94446  0.44446  0.66887  1.0000
  O   O283      1.0  0.83113  0.44446  0.55554  1.0000
  O   O284      1.0  0.94446  0.33113  0.55554  1.0000
  O   O285      1.0  0.50000  0.14877  0.64877  1.0000
  O   O286      1.0  0.64877  0.00000  0.64877  1.0000
  O   O287      1.0  0.64877  0.14877  0.50000  1.0000
  O   O288      1.0  0.50000  0.14877  0.85123  1.0000
  O   O289      1.0  0.64877  0.00000  0.35123  1.0000
  O   O290      1.0  0.85123  0.00000  0.14877  1.0000
  O   O291      1.0  0.85123  0.14877  0.00000  1.0000
  O   O292      1.0  0.85123  0.00000  0.35123  1.0000
  O   O293      1.0  0.50000  0.35123  0.14877  1.0000
  O   O294      1.0  0.64877  0.35123  0.00000  1.0000
  O   O295      1.0  0.50000  0.35123  0.35123  1.0000
  O   O296      1.0  0.85123  0.35123  0.00000  1.0000
  O   O297      1.0  0.94446  0.33113  0.44446  1.0000
  O   O298      1.0  0.94446  0.44446  0.16887  1.0000
  O   O299      1.0  0.83113  0.44446  0.05554  1.0000
  O   O300      1.0  0.94446  0.33113  0.05554  1.0000
  O   O301      1.0  0.50000  0.14877  0.14877  1.0000
  O   O302      1.0  0.64877  0.00000  0.14877  1.0000
  O   O303      1.0  0.64877  0.14877  0.00000  1.0000
  O   O304      1.0  0.50000  0.14877  0.35123  1.0000
  O   O305      1.0  0.55554  0.44446  0.16887  1.0000
  O   O306      1.0  0.55554  0.33113  0.05554  1.0000
  O   O307      1.0  0.66887  0.44446  0.05554  1.0000
  O   O308      1.0  0.55554  0.44446  0.33113  1.0000
  O   O309      1.0  0.55554  0.33113  0.44446  1.0000
  O   O310      1.0  0.66887  0.44446  0.44446  1.0000
  O   O311      1.0  0.94446  0.44446  0.33113  1.0000
  O   O312      1.0  0.83113  0.44446  0.44446  1.0000
  O   O313      1.0  0.66887  0.05554  0.44446  1.0000
  O   O314      1.0  0.55554  0.16887  0.44446  1.0000
  O   O315      1.0  0.94446  0.05554  0.16887  1.0000
  O   O316      1.0  0.83113  0.05554  0.05554  1.0000
  O   O317      1.0  0.94446  0.16887  0.05554  1.0000
  O   O318      1.0  0.94446  0.05554  0.33113  1.0000
  O   O319      1.0  0.83113  0.05554  0.44446  1.0000
  O   O320      1.0  0.94446  0.16887  0.44446  1.0000
  O   O321      1.0  0.00000  0.10728  0.25000  1.0000
  O   O322      1.0  0.25000  0.00000  0.10728  1.0000
  O   O323      1.0  0.10728  0.25000  0.00000  1.0000
  O   O324      1.0  0.25000  0.00000  0.39272  1.0000
  O   O325      1.0  0.39272  0.25000  0.00000  1.0000
  O   O326      1.0  0.10728  0.00000  0.25000  1.0000
  O   O327      1.0  0.00000  0.25000  0.10728  1.0000
  O   O328      1.0  0.25000  0.10728  0.00000  1.0000
  O   O329      1.0  0.66887  0.05554  0.94446  1.0000
  O   O330      1.0  0.55554  0.16887  0.94446  1.0000
  O   O331      1.0  0.94446  0.05554  0.66887  1.0000
  O   O332      1.0  0.83113  0.05554  0.55554  1.0000
  O   O333      1.0  0.94446  0.16887  0.55554  1.0000
  O   O334      1.0  0.94446  0.05554  0.83113  1.0000
  O   O335      1.0  0.83113  0.05554  0.94446  1.0000
  O   O336      1.0  0.94446  0.16887  0.94446  1.0000
  O   O337      1.0  0.50000  0.25000  0.89272  1.0000
  O   O338      1.0  0.75000  0.39272  0.50000  1.0000
  O   O339      1.0  0.50000  0.39272  0.75000  1.0000
  O   O340      1.0  0.89272  0.00000  0.75000  1.0000
  O   O341      1.0  0.55554  0.05554  0.66887  1.0000
  O   O342      1.0  0.66887  0.05554  0.55554  1.0000
  O   O343      1.0  0.55554  0.16887  0.55554  1.0000
  O   O344      1.0  0.55554  0.05554  0.83113  1.0000
  O   O345      1.0  0.50000  0.10728  0.75000  1.0000
  O   O346      1.0  0.75000  0.00000  0.60728  1.0000
  O   O347      1.0  0.60728  0.25000  0.50000  1.0000
  O   O348      1.0  0.75000  0.00000  0.89272  1.0000
  O   O349      1.0  0.89272  0.25000  0.50000  1.0000
  O   O350      1.0  0.60728  0.00000  0.75000  1.0000
  O   O351      1.0  0.50000  0.25000  0.60728  1.0000
  O   O352      1.0  0.75000  0.10728  0.50000  1.0000
  O   O353      1.0  0.00000  0.25000  0.89272  1.0000
  O   O354      1.0  0.25000  0.39272  0.50000  1.0000
  O   O355      1.0  0.00000  0.39272  0.75000  1.0000
  O   O356      1.0  0.39272  0.00000  0.75000  1.0000
  O   O357      1.0  0.05554  0.05554  0.66887  1.0000
  O   O358      1.0  0.16887  0.05554  0.55554  1.0000
  O   O359      1.0  0.05554  0.16887  0.55554  1.0000
  O   O360      1.0  0.05554  0.05554  0.83113  1.0000
  O   O361      1.0  0.00000  0.10728  0.75000  1.0000
  O   O362      1.0  0.25000  0.00000  0.60728  1.0000
  O   O363      1.0  0.10728  0.25000  0.50000  1.0000
  O   O364      1.0  0.25000  0.00000  0.89272  1.0000
  O   O365      1.0  0.39272  0.25000  0.50000  1.0000
  O   O366      1.0  0.10728  0.00000  0.75000  1.0000
  O   O367      1.0  0.00000  0.25000  0.60728  1.0000
  O   O368      1.0  0.25000  0.10728  0.50000  1.0000
  O   O369      1.0  0.94446  0.83113  0.94446  1.0000
  O   O370      1.0  0.94446  0.94446  0.66887  1.0000
  O   O371      1.0  0.83113  0.94446  0.55554  1.0000
  O   O372      1.0  0.94446  0.83113  0.55554  1.0000
  O   O373      1.0  0.50000  0.64877  0.64877  1.0000
  O   O374      1.0  0.64877  0.50000  0.64877  1.0000
  O   O375      1.0  0.64877  0.64877  0.50000  1.0000
  O   O376      1.0  0.50000  0.64877  0.85123  1.0000
  O   O377      1.0  0.55554  0.94446  0.66887  1.0000
  O   O378      1.0  0.55554  0.83113  0.55554  1.0000
  O   O379      1.0  0.66887  0.94446  0.55554  1.0000
  O   O380      1.0  0.55554  0.94446  0.83113  1.0000
  O   O381      1.0  0.55554  0.83113  0.94446  1.0000
  O   O382      1.0  0.66887  0.94446  0.94446  1.0000
  O   O383      1.0  0.94446  0.94446  0.83113  1.0000
  O   O384      1.0  0.83113  0.94446  0.94446  1.0000
  Si  Si1       1.0  0.50000  0.90846  0.81585  1.0000
  Si  Si2       1.0  0.90846  0.81585  0.50000  1.0000
  Al  Al1       1.0  0.50000  0.90846  0.68415  1.0000
  Al  Al2       1.0  0.59154  0.81585  0.50000  1.0000
  Al  Al3       1.0  0.90846  0.50000  0.81585  1.0000
  Al  Al4       1.0  0.81585  0.90846  0.50000  1.0000
  Si  Si3       1.0  0.90846  0.50000  0.68415  1.0000
  Si  Si4       1.0  0.81585  0.59154  0.50000  1.0000
  Al  Al5       1.0  0.59154  0.50000  0.68415  1.0000
  Al  Al6       1.0  0.50000  0.68415  0.59154  1.0000
  Al  Al7       1.0  0.68415  0.59154  0.50000  1.0000
  Si  Si5       1.0  0.59154  0.50000  0.81585  1.0000
  Si  Si6       1.0  0.50000  0.68415  0.90846  1.0000
  Si  Si7       1.0  0.50000  0.81585  0.59154  1.0000
  Si  Si8       1.0  0.68415  0.90846  0.50000  1.0000
  Al  Al8       1.0  0.50000  0.81585  0.90846  1.0000
  Si  Si9       1.0  0.50000  0.59154  0.68415  1.0000
  Si  Si10      1.0  0.68415  0.50000  0.59154  1.0000
  Si  Si11      1.0  0.59154  0.68415  0.50000  1.0000
  Al  Al9       1.0  0.50000  0.59154  0.81585  1.0000
  Al  Al10      1.0  0.68415  0.50000  0.90846  1.0000
  Al  Al11      1.0  0.81585  0.50000  0.59154  1.0000
  Al  Al12      1.0  0.90846  0.68415  0.50000  1.0000
  Si  Si12      1.0  0.81585  0.50000  0.90846  1.0000
  Si  Si13      1.0  0.50000  0.40846  0.31585  1.0000
  Si  Si14      1.0  0.90846  0.31585  0.00000  1.0000
  Al  Al13      1.0  0.50000  0.40846  0.18415  1.0000
  Al  Al14      1.0  0.59154  0.31585  0.00000  1.0000
  Al  Al15      1.0  0.90846  0.00000  0.31585  1.0000
  Al  Al16      1.0  0.81585  0.40846  0.00000  1.0000
  Si  Si15      1.0  0.90846  0.00000  0.18415  1.0000
  Si  Si16      1.0  0.81585  0.09154  0.00000  1.0000
  Al  Al17      1.0  0.59154  0.00000  0.18415  1.0000
  Al  Al18      1.0  0.50000  0.18415  0.09154  1.0000
  Al  Al19      1.0  0.68415  0.09154  0.00000  1.0000
  Si  Si17      1.0  0.59154  0.00000  0.31585  1.0000
  Si  Si18      1.0  0.50000  0.18415  0.40846  1.0000
  Si  Si19      1.0  0.50000  0.31585  0.09154  1.0000
  Si  Si20      1.0  0.68415  0.40846  0.00000  1.0000
  Al  Al20      1.0  0.50000  0.31585  0.40846  1.0000
  Si  Si21      1.0  0.50000  0.09154  0.18415  1.0000
  Si  Si22      1.0  0.68415  0.00000  0.09154  1.0000
  Si  Si23      1.0  0.59154  0.18415  0.00000  1.0000
  Al  Al21      1.0  0.50000  0.09154  0.31585  1.0000
  Al  Al22      1.0  0.68415  0.00000  0.40846  1.0000
  Al  Al23      1.0  0.81585  0.00000  0.09154  1.0000
  Al  Al24      1.0  0.90846  0.18415  0.00000  1.0000
  Si  Si24      1.0  0.81585  0.00000  0.40846  1.0000
  Al  Al25      1.0  0.50000  0.09154  0.68415  1.0000
  Al  Al26      1.0  0.68415  0.00000  0.59154  1.0000
  Al  Al27      1.0  0.59154  0.18415  0.50000  1.0000
  Si  Si25      1.0  0.50000  0.09154  0.81585  1.0000
  Si  Si26      1.0  0.68415  0.00000  0.90846  1.0000
  Si  Si27      1.0  0.81585  0.00000  0.59154  1.0000
  Si  Si28      1.0  0.90846  0.18415  0.50000  1.0000
  Al  Al28      1.0  0.81585  0.00000  0.90846  1.0000
  Al  Al29      1.0  0.50000  0.40846  0.81585  1.0000
  Al  Al30      1.0  0.90846  0.31585  0.50000  1.0000
  Si  Si29      1.0  0.50000  0.40846  0.68415  1.0000
  Si  Si30      1.0  0.59154  0.31585  0.50000  1.0000
  Si  Si31      1.0  0.90846  0.00000  0.81585  1.0000
  Si  Si32      1.0  0.81585  0.40846  0.50000  1.0000
  Al  Al31      1.0  0.90846  0.00000  0.68415  1.0000
  Al  Al32      1.0  0.81585  0.09154  0.50000  1.0000
  Si  Si33      1.0  0.59154  0.00000  0.68415  1.0000
  Si  Si34      1.0  0.50000  0.18415  0.59154  1.0000
  Si  Si35      1.0  0.68415  0.09154  0.50000  1.0000
  Al  Al33      1.0  0.59154  0.00000  0.81585  1.0000
  Al  Al34      1.0  0.50000  0.18415  0.90846  1.0000
  Al  Al35      1.0  0.50000  0.31585  0.59154  1.0000
  Al  Al36      1.0  0.68415  0.40846  0.50000  1.0000
  Si  Si36      1.0  0.50000  0.31585  0.90846  1.0000
  Al  Al37      1.0  0.00000  0.90846  0.81585  1.0000
  Al  Al38      1.0  0.40846  0.81585  0.50000  1.0000
  Si  Si37      1.0  0.00000  0.90846  0.68415  1.0000
  Si  Si38      1.0  0.09154  0.81585  0.50000  1.0000
  Si  Si39      1.0  0.40846  0.50000  0.81585  1.0000
  Si  Si40      1.0  0.31585  0.90846  0.50000  1.0000
  Al  Al39      1.0  0.40846  0.50000  0.68415  1.0000
  Al  Al40      1.0  0.31585  0.59154  0.50000  1.0000
  Si  Si41      1.0  0.09154  0.50000  0.68415  1.0000
  Si  Si42      1.0  0.00000  0.68415  0.59154  1.0000
  Si  Si43      1.0  0.18415  0.59154  0.50000  1.0000
  Al  Al41      1.0  0.09154  0.50000  0.81585  1.0000
  Al  Al42      1.0  0.00000  0.68415  0.90846  1.0000
  Al  Al43      1.0  0.00000  0.81585  0.59154  1.0000
  Al  Al44      1.0  0.18415  0.90846  0.50000  1.0000
  Si  Si44      1.0  0.00000  0.81585  0.90846  1.0000
  Al  Al45      1.0  0.00000  0.59154  0.68415  1.0000
  Al  Al46      1.0  0.18415  0.50000  0.59154  1.0000
  Al  Al47      1.0  0.09154  0.68415  0.50000  1.0000
  Si  Si45      1.0  0.00000  0.59154  0.81585  1.0000
  Si  Si46      1.0  0.18415  0.50000  0.90846  1.0000
  Si  Si47      1.0  0.31585  0.50000  0.59154  1.0000
  Si  Si48      1.0  0.40846  0.68415  0.50000  1.0000
  Al  Al48      1.0  0.31585  0.50000  0.90846  1.0000
  Si  Si49      1.0  0.00000  0.90846  0.31585  1.0000
  Si  Si50      1.0  0.40846  0.81585  0.00000  1.0000
  Al  Al49      1.0  0.00000  0.90846  0.18415  1.0000
  Al  Al50      1.0  0.09154  0.81585  0.00000  1.0000
  Al  Al51      1.0  0.40846  0.50000  0.31585  1.0000
  Al  Al52      1.0  0.31585  0.90846  0.00000  1.0000
  Si  Si51      1.0  0.40846  0.50000  0.18415  1.0000
  Si  Si52      1.0  0.31585  0.59154  0.00000  1.0000
  Al  Al53      1.0  0.09154  0.50000  0.18415  1.0000
  Al  Al54      1.0  0.00000  0.68415  0.09154  1.0000
  Al  Al55      1.0  0.18415  0.59154  0.00000  1.0000
  Si  Si53      1.0  0.09154  0.50000  0.31585  1.0000
  Si  Si54      1.0  0.00000  0.68415  0.40846  1.0000
  Si  Si55      1.0  0.00000  0.81585  0.09154  1.0000
  Si  Si56      1.0  0.18415  0.90846  0.00000  1.0000
  Al  Al56      1.0  0.00000  0.81585  0.40846  1.0000
  Si  Si57      1.0  0.00000  0.59154  0.18415  1.0000
  Si  Si58      1.0  0.18415  0.50000  0.09154  1.0000
  Si  Si59      1.0  0.09154  0.68415  0.00000  1.0000
  Al  Al57      1.0  0.00000  0.59154  0.31585  1.0000
  Al  Al58      1.0  0.18415  0.50000  0.40846  1.0000
  Al  Al59      1.0  0.31585  0.50000  0.09154  1.0000
  Al  Al60      1.0  0.40846  0.68415  0.00000  1.0000
  Si  Si60      1.0  0.31585  0.50000  0.40846  1.0000
  Al  Al61      1.0  0.50000  0.90846  0.31585  1.0000
  Al  Al62      1.0  0.90846  0.81585  0.00000  1.0000
  Si  Si61      1.0  0.50000  0.90846  0.18415  1.0000
  Si  Si62      1.0  0.59154  0.81585  0.00000  1.0000
  Si  Si63      1.0  0.90846  0.50000  0.31585  1.0000
  Si  Si64      1.0  0.81585  0.90846  0.00000  1.0000
  Al  Al63      1.0  0.90846  0.50000  0.18415  1.0000
  Al  Al64      1.0  0.81585  0.59154  0.00000  1.0000
  Si  Si65      1.0  0.59154  0.50000  0.18415  1.0000
  Si  Si66      1.0  0.50000  0.68415  0.09154  1.0000
  Si  Si67      1.0  0.68415  0.59154  0.00000  1.0000
  Al  Al65      1.0  0.59154  0.50000  0.31585  1.0000
  Al  Al66      1.0  0.50000  0.68415  0.40846  1.0000
  Al  Al67      1.0  0.50000  0.81585  0.09154  1.0000
  Al  Al68      1.0  0.68415  0.90846  0.00000  1.0000
  Si  Si68      1.0  0.50000  0.81585  0.40846  1.0000
  Al  Al69      1.0  0.50000  0.59154  0.18415  1.0000
  Al  Al70      1.0  0.68415  0.50000  0.09154  1.0000
  Al  Al71      1.0  0.59154  0.68415  0.00000  1.0000
  Si  Si69      1.0  0.50000  0.59154  0.31585  1.0000
  Si  Si70      1.0  0.68415  0.50000  0.40846  1.0000
  Si  Si71      1.0  0.81585  0.50000  0.09154  1.0000
  Si  Si72      1.0  0.90846  0.68415  0.00000  1.0000
  Al  Al72      1.0  0.81585  0.50000  0.40846  1.0000
  Si  Si73      1.0  0.00000  0.40846  0.81585  1.0000
  Si  Si74      1.0  0.40846  0.31585  0.50000  1.0000
  Al  Al73      1.0  0.00000  0.40846  0.68415  1.0000
  Al  Al74      1.0  0.09154  0.31585  0.50000  1.0000
  Al  Al75      1.0  0.40846  0.00000  0.81585  1.0000
  Al  Al76      1.0  0.31585  0.40846  0.50000  1.0000
  Si  Si75      1.0  0.40846  0.00000  0.68415  1.0000
  Si  Si76      1.0  0.31585  0.09154  0.50000  1.0000
  Al  Al77      1.0  0.09154  0.00000  0.68415  1.0000
  Al  Al78      1.0  0.00000  0.18415  0.59154  1.0000
  Al  Al79      1.0  0.18415  0.09154  0.50000  1.0000
  Si  Si77      1.0  0.09154  0.00000  0.81585  1.0000
  Si  Si78      1.0  0.00000  0.18415  0.90846  1.0000
  Si  Si79      1.0  0.00000  0.31585  0.59154  1.0000
  Si  Si80      1.0  0.18415  0.40846  0.50000  1.0000
  Al  Al80      1.0  0.00000  0.31585  0.90846  1.0000
  Si  Si81      1.0  0.00000  0.09154  0.68415  1.0000
  Si  Si82      1.0  0.18415  0.00000  0.59154  1.0000
  Si  Si83      1.0  0.09154  0.18415  0.50000  1.0000
  Al  Al81      1.0  0.00000  0.09154  0.81585  1.0000
  Al  Al82      1.0  0.18415  0.00000  0.90846  1.0000
  Al  Al83      1.0  0.31585  0.00000  0.59154  1.0000
  Al  Al84      1.0  0.40846  0.18415  0.50000  1.0000
  Si  Si84      1.0  0.31585  0.00000  0.90846  1.0000
  Al  Al85      1.0  0.00000  0.40846  0.31585  1.0000
  Al  Al86      1.0  0.40846  0.31585  0.00000  1.0000
  Si  Si85      1.0  0.00000  0.40846  0.18415  1.0000
  Si  Si86      1.0  0.09154  0.31585  0.00000  1.0000
  Si  Si87      1.0  0.40846  0.00000  0.31585  1.0000
  Si  Si88      1.0  0.31585  0.40846  0.00000  1.0000
  Al  Al87      1.0  0.40846  0.00000  0.18415  1.0000
  Al  Al88      1.0  0.31585  0.09154  0.00000  1.0000
  Si  Si89      1.0  0.09154  0.00000  0.18415  1.0000
  Si  Si90      1.0  0.00000  0.18415  0.09154  1.0000
  Si  Si91      1.0  0.18415  0.09154  0.00000  1.0000
  Al  Al89      1.0  0.09154  0.00000  0.31585  1.0000
  Al  Al90      1.0  0.00000  0.18415  0.40846  1.0000
  Al  Al91      1.0  0.00000  0.31585  0.09154  1.0000
  Al  Al92      1.0  0.18415  0.40846  0.00000  1.0000
  Si  Si92      1.0  0.00000  0.31585  0.40846  1.0000
  Al  Al93      1.0  0.00000  0.09154  0.18415  1.0000
  Al  Al94      1.0  0.18415  0.00000  0.09154  1.0000
  Al  Al95      1.0  0.09154  0.18415  0.00000  1.0000
  Si  Si93      1.0  0.00000  0.09154  0.31585  1.0000
  Si  Si94      1.0  0.18415  0.00000  0.40846  1.0000
  Si  Si95      1.0  0.31585  0.00000  0.09154  1.0000
  Si  Si96      1.0  0.40846  0.18415  0.00000  1.0000
  Al  Al96      1.0  0.31585  0.00000  0.40846  1.0000
  Na  Na1       1.0  0.00054  0.90181  0.00066  1.0000
  Na  Na2       1.0  0.38771  0.86271  0.64097  1.0000
  Na  Na3       1.0  0.62675  0.87540  0.61819  1.0000
  Na  Na4       1.0  0.10516  0.35861  0.14551  1.0000
  Na  Na5       1.0  0.36455  0.63450  0.87349  1.0000
  Na  Na6       1.0  0.62321  0.37825  0.38268  1.0000
  Na  Na7       1.0  0.12290  0.87621  0.11906  1.0000
  Na  Na8       1.0  0.00852  0.26720  0.29329  1.0000
  Na  Na9       1.0  0.88137  0.38176  0.61895  1.0000
  Na  Na10      1.0  0.37808  0.87755  0.38195  1.0000
  Na  Na11      1.0  0.28285  0.22389  0.52103  1.0000
  Na  Na12      1.0  0.38270  0.61928  0.11863  1.0000
  Na  Na13      1.0  0.38010  0.38339  0.12008  1.0000
  Na  Na14      1.0  0.51434  0.00393  0.40985  1.0000
  Na  Na15      1.0  0.12122  0.11923  0.88121  1.0000
  Na  Na16      1.0  0.62461  0.62630  0.11933  1.0000
  Na  Na17      1.0  0.21234  0.73138  0.99824  1.0000
  Na  Na18      1.0  0.73229  0.49828  0.71058  1.0000
  Na  Na19      1.0  0.93884  0.06735  0.46704  1.0000
  Na  Na20      1.0  0.88219  0.88021  0.11883  1.0000
  Na  Na21      1.0  0.13239  0.85231  0.62012  1.0000
  Na  Na22      1.0  0.61644  0.37829  0.62156  1.0000
  Na  Na23      1.0  0.11795  0.62203  0.62199  1.0000
  Na  Na24      1.0  0.62441  0.88298  0.87467  1.0000
  Na  Na25      1.0  0.28218  0.00265  0.77402  1.0000
  Na  Na26      1.0  0.36757  0.11632  0.37074  1.0000
  Na  Na27      1.0  0.78596  0.49205  0.24691  1.0000
  Na  Na28      1.0  0.43352  0.93101  0.93293  1.0000
  Na  Na29      1.0  0.73436  0.79225  0.50216  1.0000
  Na  Na30      1.0  0.11679  0.37371  0.62411  1.0000
  Na  Na31      1.0  0.87385  0.11431  0.62621  1.0000
  Na  Na32      1.0  0.87603  0.62049  0.38112  1.0000
  Na  Na33      1.0  0.25246  0.39564  0.39391  1.0000
  Na  Na34      1.0  0.37744  0.61906  0.62646  1.0000
  Na  Na35      1.0  0.37850  0.37908  0.88032  1.0000
  Na  Na36      1.0  0.87639  0.38158  0.37908  1.0000
  Na  Na37      1.0  0.86431  0.62582  0.62347  1.0000
  Na  Na38      1.0  0.78408  0.27594  0.02042  1.0000
  Na  Na39      1.0  0.88349  0.12146  0.12093  1.0000
  Na  Na40      1.0  0.98149  0.55428  0.56658  1.0000
  Na  Na41      1.0  0.89354  0.64040  0.14401  1.0000
  Na  Na42      1.0  0.06949  0.96594  0.55128  1.0000
  Na  Na43      1.0  0.28774  0.75490  0.49919  1.0000
  Na  Na44      1.0  0.43373  0.43205  0.56524  1.0000
  Na  Na45      1.0  0.61971  0.88021  0.37591  1.0000
  Na  Na46      1.0  0.12263  0.12733  0.62166  1.0000
  Na  Na47      1.0  0.06907  0.43252  0.43129  1.0000
  Na  Na48      1.0  0.12665  0.12590  0.37705  1.0000
  Na  Na49      1.0  0.84149  0.11776  0.86197  1.0000
  Na  Na50      1.0  0.21518  0.51491  0.22830  1.0000
  Na  Na51      1.0  0.62253  0.38073  0.88038  1.0000
  Na  Na52      1.0  0.61879  0.61698  0.61918  1.0000
  Na  Na53      1.0  0.88355  0.62479  0.87480  1.0000
  Na  Na54      1.0  0.50260  0.55344  0.43112  1.0000
  Na  Na55      1.0  0.50428  0.76713  0.20861  1.0000
  Na  Na56      1.0  0.27599  0.97628  0.21397  1.0000
  Na  Na57      1.0  0.86052  0.10922  0.35344  1.0000
  Na  Na58      1.0  0.06449  0.06434  0.06747  1.0000
  Na  Na59      1.0  0.99215  0.22283  0.72143  1.0000
  Na  Na60      1.0  0.62628  0.62405  0.38334  1.0000
  Na  Na61      1.0  0.73664  0.98994  0.20949  1.0000
  Na  Na62      1.0  0.12043  0.61803  0.38077  1.0000
  Na  Na63      1.0  0.47240  0.24528  0.70504  1.0000
  Na  Na64      1.0  0.27375  0.27815  0.00790  1.0000
  Na  Na65      1.0  0.13109  0.38721  0.86801  1.0000
  Na  Na66      1.0  0.50996  0.43217  0.06025  1.0000
  Na  Na67      1.0  0.06479  0.43337  0.02386  1.0000
  Na  Na68      1.0  0.48036  0.27755  0.28469  1.0000
  Na  Na69      1.0  0.62067  0.61763  0.87810  1.0000
  Na  Na70      1.0  0.37980  0.62599  0.37297  1.0000
  Na  Na71      1.0  0.62183  0.11953  0.38089  1.0000
  Na  Na72      1.0  0.88221  0.87465  0.62273  1.0000
  Na  Na73      1.0  0.43488  0.06101  0.56809  1.0000
  Na  Na74      1.0  0.87907  0.38271  0.88013  1.0000
  Na  Na75      1.0  0.56840  0.93375  0.06478  1.0000
  Na  Na76      1.0  0.62596  0.37415  0.12900  1.0000
  Na  Na77      1.0  0.87003  0.88269  0.87315  1.0000
  Na  Na78      1.0  0.73187  0.27162  0.50015  1.0000
  Na  Na79      1.0  0.15765  0.10040  0.16999  1.0000
  Na  Na80      1.0  0.01779  0.76619  0.79097  1.0000
  Na  Na81      1.0  0.62326  0.11655  0.62462  1.0000
  Na  Na82      1.0  0.28270  0.47972  0.72954  1.0000
  Na  Na83      1.0  0.62221  0.12091  0.11821  1.0000
  Na  Na84      1.0  0.12397  0.88353  0.37658  1.0000
  Na  Na85      1.0  0.61843  0.12074  0.87650  1.0000
  Na  Na86      1.0  0.99511  0.74514  0.28020  1.0000
  Na  Na87      1.0  0.37913  0.12134  0.88048  1.0000
  Na  Na88      1.0  0.71812  0.73535  0.99434  1.0000
  Na  Na89      1.0  0.95630  0.06724  0.93331  1.0000
  Na  Na90      1.0  0.06642  0.56806  0.93847  1.0000
  Na  Na91      1.0  0.47461  0.55883  0.93298  1.0000
  Na  Na92      1.0  0.36844  0.86736  0.11158  1.0000
  Na  Na93      1.0  0.12143  0.88275  0.87797  1.0000
  Na  Na94      1.0  0.38328  0.12460  0.12335  1.0000
  Na  Na95      1.0  0.87961  0.88040  0.38218  1.0000
  Na  Na96      1.0  0.93037  0.55397  0.03451  1.0000
